26
h24.out
H      -2.8474800000     3.3727400000    -0.2780200000
H      -2.5826800000     1.6436900000     0.1856900000
H      -4.1954600000     2.1735500000    -0.4414600000
H      -3.6441300000     2.6983100000     1.2035500000
H       0.9118000000    -0.6908200000    -0.0549100000
H      -0.7728200000    -0.0348600000    -0.1377800000
H      -0.4564500000    -1.6033100000     0.7065700000
H      -0.3283800000    -1.5025700000    -1.0983200000
H       1.0713400000     2.0749000000     0.3280500000
H      -0.1758800000     2.4794300000    -0.9207700000
H       1.1086200000     3.6847200000    -0.5017700000
H      -0.2045900000     3.3095600000     0.6879500000
H      -3.1522300000    -1.8213400000    -0.7331700000
H      -3.2914200000    -0.9138200000     0.8278400000
H      -4.5616900000    -2.1187000000     0.3652000000
H      -4.4288400000    -0.5516800000    -0.5339100000
H      -0.0501800000     0.8784200000     2.4452600000
H      -1.3528900000     2.0985900000     2.7555000000
H      -0.9677900000     0.8463900000     4.0064700000
H      -1.7865700000     0.3646400000     2.4648600000
H      -0.8572000000     0.7173600000    -2.8558500000
H      -2.5117400000     0.3376900000    -2.2258300000
H      -2.2741900000     0.6968800000    -3.9845300000
H      -2.1114900000     2.0210600000    -2.7588200000
He     10.0000000000    10.0000000000    10.0000000000
He    -10.0000000000    10.0000000000    10.0000000000
