26
shrink.3.out
H      -2.0758129200     2.4587274600    -0.2026765800
H      -1.8827737200     1.1982500100     0.1353680100
H      -3.0584903400     1.5845179500    -0.3218243400
H      -2.6565707700     1.9670679900     0.8773879500
H       0.6647022000    -0.5036077800    -0.0400293900
H      -0.5633857800    -0.0254129400    -0.1004416200
H      -0.3327520500    -1.1688129900     0.5150895300
H      -0.2393890200    -1.0953735300    -0.8006752800
H       0.7810068600     1.5126021000     0.2391484500
H      -0.1282165200     1.8075044700    -0.6712413300
H       0.8081839800     2.6861608800    -0.3657903300
H      -0.1491461100     2.4126692400     0.5015155500
H      -2.2979756700    -1.3277568600    -0.5344809300
H      -2.3994451800    -0.6661747800     0.6034953600
H      -3.3254720100    -1.5445323000     0.2662308000
H      -3.2286243600    -0.4021747200    -0.3892203900
H      -0.0365812200     0.6403681800     1.7825945400
H      -0.9862568100     1.5298721100     2.0087595000
H      -0.7055189100     0.6170183100     2.9207166300
H      -1.3024095300     0.2658225600     1.7968829400
H      -0.6248988000     0.5229554400    -2.0819146500
H      -1.8310584600     0.2461760100    -1.6226300700
H      -1.6578845100     0.5080255200    -2.9047223700
H      -1.5392762100     1.4733527400    -2.0111797800
He     10.0000000000    10.0000000000    10.0000000000
He    -10.0000000000    10.0000000000    10.0000000000
